
     RDKit          3D

123128  0  0  0  0  0  0  0  0999 V2000
    1.5976   -6.1144    1.3530 C   0  0  0  0  0  0  0  0  0  0  0  0
    1.1086   -5.6734    2.7223 C   0  0  0  0  0  0  0  0  0  0  0  0
    0.9080   -4.1587    2.8007 C   0  0  0  0  0  0  0  0  0  0  0  0
    0.6207   -3.4851    1.4387 C   0  0  0  0  0  0  0  0  0  0  0  0
   -0.1638   -4.4385    0.5347 C   0  0  0  0  0  0  0  0  0  0  0  0
    0.6035   -5.7363    0.2569 C   0  0  0  0  0  0  0  0  0  0  0  0
   -0.0767   -2.1292    1.6835 C   0  0  0  0  0  0  0  0  0  0  0  0
   -0.2861   -1.1926    0.4829 C   0  0  2  0  0  0  0  0  0  0  0  0
   -1.6282   -1.4294   -0.2448 C   0  0  0  0  0  0  0  0  0  0  0  0
   -1.7095   -2.0848   -1.2820 O   0  0  0  0  0  0  0  0  0  0  0  0
   -2.7211   -0.8498    0.3779 N   0  0  0  0  0  0  0  0  0  0  0  0
   -3.9503   -0.6149   -0.4058 C   0  0  2  0  0  0  0  0  0  0  0  0
   -3.7590    0.7743   -1.0593 C   0  0  0  0  0  0  0  0  0  0  0  0
   -3.6382    0.9357   -2.2712 O   0  0  0  0  0  0  0  0  0  0  0  0
   -3.6436    1.8239   -0.1602 N   0  0  0  0  0  0  0  0  0  0  0  0
   -2.6248    2.8525   -0.4057 C   0  0  2  0  0  0  0  0  0  0  0  0
   -1.5713    2.6134    0.7088 C   0  0  0  0  0  0  0  0  0  0  0  0
   -1.7659    1.7695    1.5931 O   0  0  0  0  0  0  0  0  0  0  0  0
   -0.4354    3.3816    0.6368 N   0  0  0  0  0  0  0  0  0  0  0  0
    0.6434    3.2434    1.5886 C   0  0  0  0  0  0  0  0  0  0  0  0
    1.9359    3.8916    1.0980 C   0  0  0  0  0  0  0  0  0  0  0  0
    2.5831    3.2127   -0.1187 C   0  0  0  0  0  0  0  0  0  0  0  0
    3.0617    1.7771    0.1270 C   0  0  1  0  0  0  0  0  0  0  0  0
    3.8813    1.2850   -1.0982 C   0  0  0  0  0  0  0  0  0  0  0  0
    5.1175    1.3888   -1.0572 O   0  0  0  0  0  0  0  0  0  0  0  0
    3.2250    0.8714   -2.2662 N   0  0  0  0  0  0  0  0  0  0  0  0
    4.1190    0.4673   -3.3447 C   0  0  0  0  0  0  0  0  0  0  0  0
    4.2108   -1.0570   -3.2026 C   0  0  0  0  0  0  0  0  0  0  0  0
    3.0047   -1.4552   -2.3353 C   0  0  0  0  0  0  0  0  0  0  0  0
    2.1835   -0.1708   -2.2520 C   0  0  1  0  0  0  0  0  0  0  0  0
    1.0138   -0.0926   -1.2671 C   0  0  0  0  0  0  0  0  0  0  0  0
    0.3439    0.9343   -1.1614 O   0  0  0  0  0  0  0  0  0  0  0  0
    0.7999   -1.2096   -0.4868 N   0  0  0  0  0  0  0  0  0  0  0  0
    3.9989    1.7128    1.2579 N   0  0  0  0  0  0  0  0  0  0  0  0
    3.9593    0.6311    2.1158 C   0  0  0  0  0  0  0  0  0  0  0  0
    2.9810   -0.1005    2.2323 O   0  0  0  0  0  0  0  0  0  0  0  0
    5.2146    0.4807    2.9534 C   0  0  0  0  0  0  0  0  0  0  0  0
    5.4412   -0.9622    3.4027 C   0  0  0  0  0  0  0  0  0  0  0  0
    5.8450   -1.8691    2.2627 C   0  0  0  0  0  0  0  0  0  0  0  0
    7.1610   -1.8698    1.7820 C   0  0  0  0  0  0  0  0  0  0  0  0
    7.5228   -2.6918    0.7132 C   0  0  0  0  0  0  0  0  0  0  0  0
    6.5743   -3.5194    0.1148 C   0  0  0  0  0  0  0  0  0  0  0  0
    5.2626   -3.5254    0.5837 C   0  0  0  0  0  0  0  0  0  0  0  0
    4.8995   -2.7029    1.6507 C   0  0  0  0  0  0  0  0  0  0  0  0
   -3.2423    4.2518   -0.3405 C   0  0  0  0  0  0  0  0  0  0  0  0
   -3.0257    5.0741   -1.6209 C   0  0  0  0  0  0  0  0  0  0  0  0
   -1.5641    5.3026   -2.0086 C   0  0  0  0  0  0  0  0  0  0  0  0
   -0.8041    5.8000   -0.8623 N   0  0  0  0  0  0  0  0  0  0  0  0
   -0.7490    7.0575   -0.6368 C   0  0  0  0  0  0  0  0  0  0  0  0
   -1.3045    8.0951   -1.2988 N   0  0  0  0  0  0  0  0  0  0  0  0
   -0.0684    7.5182    0.4346 N   0  0  0  0  0  0  0  0  0  0  0  0
   -5.1918   -0.6976    0.4876 C   0  0  0  0  0  0  0  0  0  0  0  0
   -6.4755   -0.5942   -0.2738 C   0  0  0  0  0  0  0  0  0  0  0  0
   -7.2229    0.5509   -0.4684 C   0  0  0  0  0  0  0  0  0  0  0  0
   -8.3156    0.2269   -1.2264 N   0  0  0  0  0  0  0  0  0  0  0  0
   -8.3075   -1.1150   -1.5253 C   0  0  0  0  0  0  0  0  0  0  0  0
   -9.2172   -1.8798   -2.2655 C   0  0  0  0  0  0  0  0  0  0  0  0
   -8.9452   -3.2424   -2.4175 C   0  0  0  0  0  0  0  0  0  0  0  0
   -7.8077   -3.8138   -1.8527 C   0  0  0  0  0  0  0  0  0  0  0  0
   -6.9087   -3.0343   -1.1155 C   0  0  0  0  0  0  0  0  0  0  0  0
   -7.1614   -1.6576   -0.9443 C   0  0  0  0  0  0  0  0  0  0  0  0
    2.5671   -5.6445    1.1467 H   0  0  0  0  0  0  0  0  0  0  0  0
    1.7669   -7.1970    1.3389 H   0  0  0  0  0  0  0  0  0  0  0  0
    1.8132   -5.9919    3.4989 H   0  0  0  0  0  0  0  0  0  0  0  0
    0.1574   -6.1750    2.9413 H   0  0  0  0  0  0  0  0  0  0  0  0
    0.0976   -3.9586    3.5131 H   0  0  0  0  0  0  0  0  0  0  0  0
    1.8060   -3.6973    3.2314 H   0  0  0  0  0  0  0  0  0  0  0  0
    1.5910   -3.2895    0.9633 H   0  0  0  0  0  0  0  0  0  0  0  0
   -1.1254   -4.6790    1.0061 H   0  0  0  0  0  0  0  0  0  0  0  0
   -0.3944   -3.9779   -0.4280 H   0  0  0  0  0  0  0  0  0  0  0  0
   -0.1214   -6.5475    0.1167 H   0  0  0  0  0  0  0  0  0  0  0  0
    1.1474   -5.6480   -0.6916 H   0  0  0  0  0  0  0  0  0  0  0  0
   -1.0377   -2.2998    2.1860 H   0  0  0  0  0  0  0  0  0  0  0  0
    0.5442   -1.5809    2.4060 H   0  0  0  0  0  0  0  0  0  0  0  0
   -0.3264   -0.1758    0.8887 H   0  0  0  0  0  0  0  0  0  0  0  0
   -2.4765   -0.1258    1.0535 H   0  0  0  0  0  0  0  0  0  0  0  0
   -4.0162   -1.3549   -1.2122 H   0  0  0  0  0  0  0  0  0  0  0  0
   -3.7047    1.5794    0.8213 H   0  0  0  0  0  0  0  0  0  0  0  0
   -2.1366    2.6498   -1.3639 H   0  0  0  0  0  0  0  0  0  0  0  0
   -0.4432    4.1991    0.0212 H   0  0  0  0  0  0  0  0  0  0  0  0
    0.3143    3.7409    2.5081 H   0  0  0  0  0  0  0  0  0  0  0  0
    0.7865    2.1851    1.8288 H   0  0  0  0  0  0  0  0  0  0  0  0
    1.7362    4.9378    0.8359 H   0  0  0  0  0  0  0  0  0  0  0  0
    2.6535    3.9174    1.9264 H   0  0  0  0  0  0  0  0  0  0  0  0
    1.8876    3.2307   -0.9664 H   0  0  0  0  0  0  0  0  0  0  0  0
    3.4396    3.8289   -0.4246 H   0  0  0  0  0  0  0  0  0  0  0  0
    2.2354    1.1134    0.3461 H   0  0  0  0  0  0  0  0  0  0  0  0
    5.0986    0.9532   -3.3253 H   0  0  0  0  0  0  0  0  0  0  0  0
    3.6332    0.7302   -4.2923 H   0  0  0  0  0  0  0  0  0  0  0  0
    4.1915   -1.5441   -4.1827 H   0  0  0  0  0  0  0  0  0  0  0  0
    5.1411   -1.3491   -2.7026 H   0  0  0  0  0  0  0  0  0  0  0  0
    3.3518   -1.7695   -1.3441 H   0  0  0  0  0  0  0  0  0  0  0  0
    2.4417   -2.2856   -2.7730 H   0  0  0  0  0  0  0  0  0  0  0  0
    1.6701   -0.0660   -3.2225 H   0  0  0  0  0  0  0  0  0  0  0  0
    0.9741   -2.1034   -0.9269 H   0  0  0  0  0  0  0  0  0  0  0  0
    4.9290    2.0440    1.0163 H   0  0  0  0  0  0  0  0  0  0  0  0
    5.0871    1.1194    3.8353 H   0  0  0  0  0  0  0  0  0  0  0  0
    6.0844    0.8505    2.3984 H   0  0  0  0  0  0  0  0  0  0  0  0
    6.2362   -0.9835    4.1591 H   0  0  0  0  0  0  0  0  0  0  0  0
    4.5479   -1.3615    3.8991 H   0  0  0  0  0  0  0  0  0  0  0  0
    7.9126   -1.2280    2.2355 H   0  0  0  0  0  0  0  0  0  0  0  0
    8.5456   -2.6845    0.3460 H   0  0  0  0  0  0  0  0  0  0  0  0
    6.8579   -4.1583   -0.7170 H   0  0  0  0  0  0  0  0  0  0  0  0
    4.5203   -4.1673    0.1179 H   0  0  0  0  0  0  0  0  0  0  0  0
    3.8687   -2.7063    1.9996 H   0  0  0  0  0  0  0  0  0  0  0  0
   -4.3270    4.1792   -0.1856 H   0  0  0  0  0  0  0  0  0  0  0  0
   -2.8591    4.8131    0.5204 H   0  0  0  0  0  0  0  0  0  0  0  0
   -3.5154    6.0462   -1.4836 H   0  0  0  0  0  0  0  0  0  0  0  0
   -3.5394    4.5838   -2.4568 H   0  0  0  0  0  0  0  0  0  0  0  0
   -1.4977    5.9642   -2.8793 H   0  0  0  0  0  0  0  0  0  0  0  0
   -1.1064    4.3623   -2.3344 H   0  0  0  0  0  0  0  0  0  0  0  0
   -1.6512    7.8787   -2.2241 H   0  0  0  0  0  0  0  0  0  0  0  0
   -0.6938    8.9040   -1.3281 H   0  0  0  0  0  0  0  0  0  0  0  0
   -0.5840    8.2258    0.9445 H   0  0  0  0  0  0  0  0  0  0  0  0
    0.1913    6.7552    1.0506 H   0  0  0  0  0  0  0  0  0  0  0  0
   -5.1719    0.0734    1.2679 H   0  0  0  0  0  0  0  0  0  0  0  0
   -5.1798   -1.6533    1.0288 H   0  0  0  0  0  0  0  0  0  0  0  0
   -7.0638    1.5709   -0.1437 H   0  0  0  0  0  0  0  0  0  0  0  0
   -9.0264    0.8764   -1.5322 H   0  0  0  0  0  0  0  0  0  0  0  0
  -10.1012   -1.4364   -2.7115 H   0  0  0  0  0  0  0  0  0  0  0  0
   -9.6302   -3.8638   -2.9895 H   0  0  0  0  0  0  0  0  0  0  0  0
   -7.6111   -4.8744   -1.9876 H   0  0  0  0  0  0  0  0  0  0  0  0
   -6.0219   -3.4909   -0.6859 H   0  0  0  0  0  0  0  0  0  0  0  0
  1  2  1  0
  2  3  1  0
  3  4  1  0
  4  5  1  0
  5  6  1  0
  4  7  1  0
  7  8  1  0
  8  9  1  0
  9 10  2  0
  9 11  1  0
 11 12  1  0
 12 13  1  0
 13 14  2  0
 13 15  1  0
 15 16  1  0
 16 17  1  0
 17 18  2  0
 17 19  1  0
 19 20  1  0
 20 21  1  0
 21 22  1  0
 22 23  1  0
 23 24  1  0
 24 25  2  0
 24 26  1  0
 26 27  1  0
 27 28  1  0
 28 29  1  0
 29 30  1  0
 30 31  1  0
 31 32  2  0
 31 33  1  0
 23 34  1  0
 34 35  1  0
 35 36  2  0
 35 37  1  0
 37 38  1  0
 38 39  1  0
 39 40  2  0
 40 41  1  0
 41 42  2  0
 42 43  1  0
 43 44  2  0
 16 45  1  0
 45 46  1  0
 46 47  1  0
 47 48  1  0
 48 49  2  3
 49 50  1  0
 49 51  1  0
 12 52  1  0
 52 53  1  0
 53 54  2  0
 54 55  1  0
 55 56  1  0
 56 57  2  0
 57 58  1  0
 58 59  2  0
 59 60  1  0
 60 61  2  0
  6  1  1  0
 33  8  1  0
 30 26  1  0
 44 39  1  0
 61 53  1  0
 61 56  1  0
  1 62  1  0
  1 63  1  0
  2 64  1  0
  2 65  1  0
  3 66  1  0
  3 67  1  0
  4 68  1  0
  5 69  1  0
  5 70  1  0
  6 71  1  0
  6 72  1  0
  7 73  1  0
  7 74  1  0
  8 75  1  1
 11 76  1  0
 12 77  1  6
 15 78  1  0
 16 79  1  6
 19 80  1  0
 20 81  1  0
 20 82  1  0
 21 83  1  0
 21 84  1  0
 22 85  1  0
 22 86  1  0
 23 87  1  1
 27 88  1  0
 27 89  1  0
 28 90  1  0
 28 91  1  0
 29 92  1  0
 29 93  1  0
 30 94  1  6
 33 95  1  0
 34 96  1  0
 37 97  1  0
 37 98  1  0
 38 99  1  0
 38100  1  0
 40101  1  0
 41102  1  0
 42103  1  0
 43104  1  0
 44105  1  0
 45106  1  0
 45107  1  0
 46108  1  0
 46109  1  0
 47110  1  0
 47111  1  0
 50112  1  0
 50113  1  0
 51114  1  0
 51115  1  0
 52116  1  0
 52117  1  0
 54118  1  0
 55119  1  0
 57120  1  0
 58121  1  0
 59122  1  0
 60123  1  0
M  END
